%chk=Au4L4-opt.chk
%nprocs=4
%mem=2GB
#p opt pbe1pbe/def2SVP int=ultrafine

Au4L4-opt

2 1
 Au                -0.00000000   -0.00000000    1.77561701
 Au                -0.00000000   -1.67406777   -0.59187234
 Au                 1.44978522    0.83703389   -0.59187234
 Au                -1.44978522    0.83703389   -0.59187234
 P                 -0.00000000   -0.00000000    4.16561701
 H                  1.07600491   -0.62123172    4.61561660
 H                  0.00000000    1.24246344    4.61561660
 H                 -1.07600491   -0.62123172    4.61561660
 P                 -0.00000000   -3.92738138   -1.38853900
 H                 -0.00000000   -3.93749058   -2.70994464
 H                  1.07600491   -4.55872231   -0.95283598
 H                 -1.07600491   -4.55872231   -0.95283598
 P                  3.40121205    1.96369069   -1.38853900
 H                  4.48597178    1.34751357   -0.95283598
 H                  3.40996687    1.96874529   -2.70994464
 H                  3.40996687    3.21120874   -0.95283598
 P                 -3.40121205    1.96369069   -1.38853900
 H                 -3.40996687    3.21120874   -0.95283598
 H                 -3.40996687    1.96874529   -2.70994464
 H                 -4.48597178    1.34751357   -0.95283598


